Circuit: * C:\Users\Nevius\Documents\GitHub\Radiation-Detector\Simulation\Generador_HV.asc

Warning: Multiple definitions of model "irfl4310" Type: Vdmos1
Warning: Multiple definitions of model "bas21vm" Type: Diode
Per .tran options, skipping operating point for transient analysis.
Changing Tseed to 1e-008
Changing Tseed to 1e-010
Changing Tseed to 1e-007
Changing Tseed to 1e-011
Heightened Def Con from 0.00133249 to 0.00133249
Heightened Def Con from 3.61268 to 3.61268
Heightened Def Con from 3.61268 +to 3.61268
Heightened Def Con from 3.61268 +to 3.61268
Heightened Def Con from 3.61268 +++to 3.61268
Heightened Def Con from 3.61268 to 3.61268
Heightened Def Con from 3.61268 to 3.61268
Heightened Def Con from 3.6128 to 3.6128
Heightened Def Con from 3.6128 to 3.6128
Heightened Def Con from 3.61281 to 3.61281
Heightened Def Con from 3.61281 to 3.61281
Heightened Def Con from 3.61348 +to 3.61348
Heightened Def Con from 7.76454 to 7.76454
Heightened Def Con from 7.76454 to 7.76454
Heightened Def Con from 7.76454 to 7.76454
Heightened Def Con from 7.76466 to 7.76466
Heightened Def Con from 7.76467 to 7.76467
Heightened Def Con from 7.76467 to 7.76467
Heightened Def Con from 7.76495 to 7.76495
Heightened Def Con from 7.76531 to 7.76531
Heightened Def Con from 12.1277 to 12.1277
Heightened Def Con from 12.1277 to 12.1277
Heightened Def Con from 12.1277 to 12.1277
Heightened Def Con from 12.1277 ++++++++++++++++++to 12.1277
Heightened Def Con from 12.1277 to 12.1277
Heightened Def Con from 12.1278 to 12.1278
Heightened Def Con from 12.1278 to 12.1278
Heightened Def Con from 12.1278 to 12.1278
Heightened Def Con from 12.1285 +to 12.1285
Heightened Def Con from 16.794 to 16.794
Heightened Def Con from 16.794 to 16.794
Heightened Def Con from 16.794 to 16.794
Heightened Def Con from 16.794 to 16.794
Heightened Def Con from 16.794 ++++++++++++++++++to 16.794
Heightened Def Con from 16.794 to 16.794
Heightened Def Con from 16.7942 to 16.7942
Heightened Def Con from 16.7942 to 16.7942
Heightened Def Con from 16.7942 to 16.7942
Heightened Def Con from 16.7942 to 16.7942

Date: Thu Dec 12 17:08:13 2024
Total elapsed time: 21.570 seconds.

tnom = 27
temp = 27
method = modified trap
totiter = 1478226
traniter = 1478226
tranpoints = 447923
accept = 319926
rejected = 128075
matrix size = 93
fillins = 44
solver = Normal
Thread vector: 9.4/6.9[4] 3.4/2.2[4] 1.0/0.8[3] 0.2/0.4[1]  2592/500
Matrix Compiler1: 6.95 KB object code size  1.1/0.5/[0.4]
Matrix Compiler2: 7.98 KB object code size  0.5/0.8/[0.4]

